*HEADING
Mantis environment 10 mm hex cube. Not CAD or EE authority.
*NODE
1, 0, 0, 0
2, 10, 0, 0
3, 10, 10, 0
4, 0, 10, 0
5, 0, 0, 10
6, 10, 0, 10
7, 10, 10, 10
8, 0, 10, 10
*ELEMENT, TYPE=C3D8, ELSET=Eall
1, 1, 2, 3, 4, 5, 6, 7, 8
*SOLID SECTION, ELSET=Eall, MATERIAL=EL
1.0
*MATERIAL, NAME=EL
*ELASTIC
210000.0, 0.3
*BOUNDARY
1, 1, 3
2, 2, 3
4, 3
*STEP
*STATIC
*CLOAD
7, 3, -100.0
*NODE FILE
U
*EL FILE
S
*END STEP
