*mantis doctor CalculiX cube fixture
*HEADING
Mantis doctor unit-cube tension
*NODE
1,0,0,0
2,1,0,0
3,1,1,0
4,0,1,0
5,0,0,1
6,1,0,1
7,1,1,1
8,0,1,1
*ELEMENT,TYPE=C3D8,ELSET=EALL
1,1,2,3,4,5,6,7,8
*MATERIAL,NAME=Steel
*ELASTIC
210000000000,0.3
*SOLID SECTION,ELSET=EALL,MATERIAL=Steel
*BOUNDARY
1,1,3,0
4,1,3,0
5,1,3,0
8,1,3,0
*STEP
*STATIC
*CLOAD
2,1,1000
3,1,1000
6,1,1000
7,1,1000
*NODE FILE
U
*EL FILE
S
*END STEP
